[TITLE]
;;Project Title/Notes
Testgebiet - 5-yr rainfall

[OPTIONS]
;;Option             Value
FLOW_UNITS           CMS
INFILTRATION         HORTON
FLOW_ROUTING         DYNWAVE
LINK_OFFSETS         DEPTH
MIN_SLOPE            0
ALLOW_PONDING        NO
SKIP_STEADY_STATE    NO

START_DATE           06/17/2006
START_TIME           15:40:00
REPORT_START_DATE    06/17/2006
REPORT_START_TIME    15:40:00
END_DATE             06/17/2006
END_TIME             18:20:00
SWEEP_START          1/1
SWEEP_END            12/31
DRY_DAYS             0
REPORT_STEP          00:01:00
WET_STEP             00:01:00
DRY_STEP             00:01:00
ROUTING_STEP         0:00:15 
RULE_STEP            00:00:00

INERTIAL_DAMPING     PARTIAL
NORMAL_FLOW_LIMITED  BOTH
FORCE_MAIN_EQUATION  H-W
VARIABLE_STEP        0.75
LENGTHENING_STEP     0
MIN_SURFAREA         0
MAX_TRIALS           8
HEAD_TOLERANCE       0.0015
SYS_FLOW_TOL         5
LAT_FLOW_TOL         5
MINIMUM_STEP         0.5
THREADS              1

[EVAPORATION]
;;Data Source    Parameters
;;-------------- ----------------
CONSTANT         0.0
DRY_ONLY         NO

[RAINGAGES]
;;               Rain      Time   Snow   Data      
;;Name           Type      Intrvl Catch  Source    
;;-------------- --------- ------ ------ ----------
RainGage         INTENSITY 0:10   1.0    TIMESERIES 5-yr    

[SUBCATCHMENTS]
;;     Raingage   Outlet                                   Area                    PercImperv          Width                PercSlope           CurbLength SnowPack
s1     RainGage   {90E90159-D9FD-4FDB-8A20-BEDD0C54D4FF}  0.0034567629918456078   47.663455963134766  5.879424571990967    13.150160789489746  0.0               
s2     RainGage   {BD46444C-B91C-4EDE-A2A7-8989E3D7FA1C}  0.017162717878818512    91.24602508544922   13.100655555725098   12.994061470031738  0.0               
s3     RainGage   {2F67F1A4-6223-4674-BD20-C336241F9FEF}  0.1488569974899292      49.79395294189453   38.58198928833008    29.661718368530273  0.0               
s4     RainGage   {495632DE-A07D-4353-A2CB-375742D7D66E}  0.004134605638682842    54.48849105834961   6.430089950561523    35.071937561035156  0.0               
s5     RainGage   {BFFD5BDB-869D-4EE2-A1BD-DE3661C59EC1}  0.052194900810718536    74.30794525146484   22.846202850341797   15.28757381439209   0.0               
s6     RainGage   {B9FC12D7-D1D4-4580-B05B-9A0B3B79FCA4}  0.24029546976089478     29.723094940185547  49.01994323730469    23.08133316040039   0.0               
s7     RainGage   {4BA9CACA-67B0-4ADB-804E-C6D1996967FB}  0.020989185199141502    80.39705657958984   14.487645149230957   17.317546844482422  0.0               
s8     RainGage   {43E93F5B-2799-4B06-A5D4-5A298C75977B}  0.14524772763252258     11.623322486877441  38.11138153076172    29.993453979492188  0.0               
s9     RainGage   {AF0BCDD2-9CCC-4826-BDB2-784CCB66B4F2}  0.03554141893982887     32.05430221557617   18.852432250976562   21.167022705078125  0.0               
s10    RainGage   {BEB8F4C7-F8A6-4378-B394-2BFC41D75CEE}  0.006126739550381899    100.0               7.8273491859436035   18.147764205932617  0.0               
s11    RainGage   {430F4BFD-B5B8-410C-BD2F-552A0442C584}  0.07241891324520111     37.07810974121094   26.910762786865234   22.292491912841797  0.0               
s12    RainGage   {06BE35D3-ACF9-4BBD-9DD4-006EC6349B88}  0.0022776874247938395   46.47088623046875   4.772512435913086    35.42074203491211   0.0               
s13    RainGage   {BE0A883E-6137-4F45-BE01-FB8A3E179A2E}  0.0022850302048027515   36.18848419189453   4.78019905090332     31.770305633544922  0.0               
s14    RainGage   {9D5F8D81-0BB8-47B8-AE36-3D6984931B6A}  0.006559542380273342    63.911293029785156  8.099100112915039    32.6273307800293    0.0               
s15    RainGage   {D0945EAE-084C-4E03-A959-B1F0D7F108F5}  0.2149059772491455      18.532426834106445  46.35795211791992    26.480485916137695  0.0               
s16    RainGage   {6ACD5222-A344-4E43-90F1-DCCE9D4EBDC4}  0.01947920024394989     61.95706558227539   13.95678997039795    14.809633255004883  0.0               
s17    RainGage   {F743005D-5D03-4D84-86B4-C4ACE8057D38}  0.0459078811109066      65.34188079833984   21.426124572753906   18.788076400756836  0.0               
s18    RainGage   {6BA272C1-5CE8-45A5-88FF-1684B3AC3660}  0.008839854039251804    100.0               9.402050018310547    10.1930570602417    0.0               
s19    RainGage   {470C212E-8902-48AE-B472-EC5003FF908D}  0.026363667100667953    68.14582061767578   16.236892700195312   18.220781326293945  0.0               
s20    RainGage   {FA8C8319-EC3D-4FE9-B647-F24E294B6B56}  0.010388647206127644    100.0               10.192471504211426   10.484567642211914  0.0               
s21    RainGage   {0F8C892C-8D2B-45DF-B402-702FE182E0CF}  0.005103368777781725    97.69723510742188   7.143786430358887    10.965227127075195  0.0               
s22    RainGage   {834DF493-04E0-46A9-A4C3-4E9836FC0FCB}  0.0002027394948527217   100.0               1.4238661527633667   12.259415626525879  0.0               
s23    RainGage   {D385B3B8-5D53-4472-BA8C-00D8A1AF80BB}  0.9293692111968994      5.854814052581787   96.40379333496094    26.576047897338867  0.0               
s24    RainGage   {6CD0E440-D681-424E-8B41-10BF6016AD38}  0.02909623645246029     67.11763000488281   17.057619094848633   26.523717880249023  0.0               
s25    RainGage   {FD799397-2EAC-4260-81A8-AA47FE52FCA1}  0.013768678531050682    86.26419830322266   11.734001159667969   7.36589241027832    0.0               
s26    RainGage   {1880D3CA-15F6-4BAF-B867-16D42615E50D}  0.17155884206295013     28.873117446899414  41.41966247558594    30.750446319580078  0.0               
s27    RainGage   {BB9FDD9F-B910-439B-BD34-296ED308E027}  0.0029311899561434984   100.0               5.414046287536621    13.592156410217285  0.0               
s28    RainGage   {C78D70B9-2602-4391-9B47-F4501880FF98}  0.017163783311843872    98.66671752929688   13.101062774658203   12.159920692443848  0.0               
s29    RainGage   {B9FF30AF-F2D9-4759-BB7B-461218B9E345}  0.06807751953601837     78.89317321777344   26.0916690826416     13.107006072998047  0.0               
s30    RainGage   {20BDD543-741A-4317-AA95-01F9E69CDC73}  0.056963082402944565    41.20598602294922   23.866939544677734   29.521974563598633  0.0               
s31    RainGage   {B9BAA0AB-A68C-4168-ADFA-24144CA144DB}  0.010385619476437569    44.576881408691406  10.190985679626465   22.131128311157227  0.0               
s32    RainGage   {19349919-933A-4E53-8BAD-262D0EB10F40}  0.0008022399852052331   27.900880813598633  2.8323841094970703   51.2009391784668    0.0               
s33    RainGage   {0C9DF317-4090-436D-B0EA-397495B19953}  0.044156938791275024    51.15072250366211   21.013551712036133   30.095016479492188  0.0               
s34    RainGage   {4A5B2EC4-6184-4B00-91BB-B76F7429C1FB}  0.03911677375435829     96.67181396484375   19.77796173095703    13.454878807067871  0.0               
s35    RainGage   {E88422C4-BA00-40DB-A04F-D6F8346EAF54}  6.830749771324918e-05   0.0                 0.8264834880828857   50.89521408081055   0.0               
s36    RainGage   {F45BDDFF-1FAC-471E-B339-5A2023CC592C}  0.0036986779887229204   55.606266021728516  6.0816755294799805   25.36887550354004   0.0               
s37    RainGage   {7037BE5B-B536-4066-AE31-9239FEA31041}  0.052291661500930786    92.21546173095703   22.86737060546875    20.71528434753418   0.0               
s38    RainGage   {7186DD2A-71A7-4349-993B-743ADEDC1FFA}  0.09456446021795273     81.47695922851562   30.75133514404297    21.94132423400879   0.0               
s39    RainGage   {D3A10EB7-59F9-4977-96F8-14107B82483E}  0.0003730303142219782   100.0               1.9313992261886597   11.533501625061035  0.0               
s40    RainGage   {5A3D0701-4EAF-4AE0-BC4D-D4B097DAA9BB}  0.025647789239883423    86.4074935913086    16.01492691040039    20.786802291870117  0.0               
s41    RainGage   {6CAE8A38-A1B0-45FC-A5A5-3FEBB7F8909D}  9.717926877783611e-05   0.0                 0.9857954978942871   11.529339790344238  0.0               
s42    RainGage   {5E32E9DC-F846-47BC-8334-508314181EAB}  0.0028011268004775047   100.0               5.292567253112793    34.64878463745117   0.0               
s43    RainGage   {796418F5-AA86-4907-917D-1377D0D514EC}  0.0005860499804839492   100.0               2.420846939086914    49.67828369140625   0.0               
s44    RainGage   {8F1D6421-F063-4B91-A3BA-8C0420FB374A}  0.006896179169416428    40.051429748535156  8.304323196411133    31.373903274536133  0.0               
s45    RainGage   {0F922503-B55E-43F3-B6B0-E030E4297FBE}  0.07645201683044434     26.016143798828125  27.64995765686035    30.455808639526367  0.0               
s46    RainGage   {68C878AE-0856-4DD1-9AF4-A01BD5C59D83}  0.0008662412292324007   100.0               2.943197727203369    23.497007369995117  0.0               
s47    RainGage   {952CD531-5DAA-4D74-B7D5-8E8CFFD209D2}  0.0051701306365430355   22.432477951049805  7.190361976623535    23.36161231994629   0.0               
s48    RainGage   {6C3761C6-5D9F-46E1-9D15-B622E99D2A34}  0.0038321432657539845   100.0               6.190430641174316    14.200984954833984  0.0               
s49    RainGage   {B851080A-DCFB-48D1-BB8E-E6283E618D2E}  0.06356275081634521     49.563716888427734  25.211652755737305   17.47931480407715   0.0               
s50    RainGage   {D757EBA6-EFB7-49C3-ABC7-2E22C275B2B1}  0.041506730020046234    78.8401870727539    20.373199462890625   16.07510757446289   0.0               
s51    RainGage   {5790FD5C-A7E3-4F9D-9AEF-4A4617C8BFB1}  0.01990072801709175     87.59812927246094   14.106993675231934   11.898197174072266  0.0               
s52    RainGage   {A05B6985-ACCB-446C-8336-D442218398AA}  0.03773171454668045     51.7841682434082    19.424654006958008   15.301613807678223  0.0               
s53    RainGage   {F15214DD-FEEE-48E3-9B15-2A91FE006E66}  0.00740601122379303     64.16261291503906   8.605818748474121    9.77177906036377    0.0               
s54    RainGage   {85D8B240-FF9B-485A-879B-4E18632AA72D}  0.029559900984168053    63.73365020751953   17.1929931640625     22.711091995239258  0.0               
s55    RainGage   {D4A525D1-4C10-4B7C-90D4-03DCADE0EC74}  0.00012723375402856618  100.0               1.1279793977737427   12.97921371459961   0.0               
s56    RainGage   {406E4E90-C3B1-4D14-B95B-4AC36078B1E0}  0.0013731112703680992   100.0               3.7055516242980957   11.93570613861084   0.0               
s57    RainGage   {EAE5168C-3970-40DB-AC6B-3AF95FC98F6B}  0.011009958572685719    100.0               10.49283504486084    21.94112777709961   0.0               
s58    RainGage   {2603A47B-5996-468F-984E-ECBB27326D45}  0.009309506975114346    92.1887435913086    9.648578643798828    8.126280784606934   0.0               
s59    RainGage   {DD479643-3C57-4022-A14F-F151D5FE7F6E}  0.0004122440586797893   100.0               2.030379295349121    13.559178352355957  0.0               
s60    RainGage   {24D6AB4B-D0FD-4F33-95F9-A6D2598B58D5}  0.0009389641927555203   100.0               3.0642523765563965   18.50183868408203   0.0               
s61    RainGage   {E4240678-7945-49C8-8726-231A4A92C951}  0.041073281317949295    80.59219360351562   20.266544342041016   18.294322967529297  0.0               
s62    RainGage   {6FA8517F-CBE0-4241-8735-3C259DBFE144}  0.012939359061419964    59.5153694152832    11.375130653381348   11.794370651245117  0.0               
s63    RainGage   {50FC0FB2-18C0-4C99-A198-762C1506189F}  0.00142485904507339     100.0               3.774730682373047    13.737678527832031  0.0               
s64    RainGage   {31DEA68C-78C7-4CD1-B9D5-72C09A3B3DE0}  0.0006512075196951628   100.0               2.5518767833709717   14.695581436157227  0.0               
s65    RainGage   {2FA92753-6E77-430D-B685-DB6B2604B262}  0.21999351680278778     31.946720123291016  46.903465270996094   29.359037399291992  0.0               
s66    RainGage   {244ABA1B-8FBA-4B08-9783-8F923BBC3200}  0.0008629242656752467   100.0               2.9375572204589844   17.229337692260742  0.0               
s67    RainGage   {3A1CFFC7-D562-4F8D-947F-FB28940F343E}  0.0322408527135849      58.81486129760742   17.955738067626953   23.32857894897461   0.0               
s68    RainGage   {1FFE1C34-2C96-46CE-8C39-252A838B016F}  0.015486909076571465    70.28953552246094   12.44464111328125    18.164819717407227  0.0               
s69    RainGage   {8574D468-0F79-49D5-8D8E-1A26AFF86908}  0.07753626257181168     41.76290512084961   27.845333099365234   29.27846908569336   0.0               
s70    RainGage   {03B23DC4-726A-4173-B9DB-EAE9DEE6E93B}  0.0008269117097370327   100.0               2.8756072521209717   18.94647216796875   0.0               
s71    RainGage   {E8F33A80-5690-4C03-9362-D0C9651260FD}  0.0024316245689988136   34.20576477050781   4.931150436401367    29.932741165161133  0.0               
s72    RainGage   {C769A1F3-9D18-4539-803A-90C90253A8A3}  9.082750329980627e-05   0.0                 0.9530346393585205   31.33823013305664   0.0               
s73    RainGage   {A3ED4BF3-1B8B-45B4-A171-C42E48945A0F}  0.003148521762341261    76.1628189086914    5.61116886138916     36.20214080810547   0.0               
s74    RainGage   {11A64DDE-1D7A-4438-8497-C53403C215FA}  0.0006925137713551521   47.74970626831055   2.631565570831299    44.454593658447266  0.0               
s75    RainGage   {3988652D-73E1-4F38-A004-5634BF0BE414}  0.013565224595367908    100.0               11.646984100341797   24.742090225219727  0.0               
s76    RainGage   {95339666-3265-43A6-A0EF-23ACB28E7695}  0.0596102811396122      99.3964614868164    24.41521644592285    14.506420135498047  0.0               
s77    RainGage   {D992BC10-1D4D-42D3-B579-7231B69199ED}  0.0016186936991289258   69.1253433227539    4.023299217224121    25.00721549987793   0.0               
s78    RainGage   {253D083D-BF49-47AB-B75B-D9B0B6BBA7BA}  0.03247011452913284     73.17032623291016   18.019466400146484   18.941431045532227  0.0               
s79    RainGage   {41CAB327-AB45-413F-AD00-43103BC96FF8}  0.06113921478390694     55.674705505371094  24.72634506225586    22.63740348815918   0.0               
s80    RainGage   {A9D13A4F-A579-4C96-BC68-682E062DF33A}  0.0021712500602006912   100.0               4.659667491912842    42.36574172973633   0.0               
s81    RainGage   {6A52AA62-74CB-403E-B999-06FE981C8D35}  0.036912161856889725    77.80130767822266   19.21253776550293    17.691038131713867  0.0               
s82    RainGage   {E0957521-43A5-4F26-A665-67C003D86484}  0.04225681349635124     49.3034553527832    20.556461334228516   25.001983642578125  0.0               
s83    RainGage   {01FB85E4-4D7E-4213-9995-E03F1026C4DC}  0.0835694745182991      91.20193481445312   28.908384323120117   15.947978019714355  0.0               
s84    RainGage   {11559E03-21A5-4188-8C0C-D5A613A1F379}  3.016875052708201e-05   0.0                 0.5492608547210693   46.548702239990234  0.0               
s85    RainGage   {6642445E-834F-4296-8E66-2DC26604CF6A}  0.003758455626666546    51.02093505859375   6.130624294281006    20.599245071411133  0.0               
s86    RainGage   {2B33F07A-6201-4A5B-A92B-E9FFED071746}  0.02480408176779747     52.895206451416016  15.749311447143555   22.066560745239258  0.0               
s87    RainGage   {8E7EBE63-D042-40E5-A637-1991E2D335E6}  0.01746300794184208     90.1856689453125    13.214767456054688   20.334665298461914  0.0               
s88    RainGage   {D9313FA0-B671-4EB9-9671-03705E1EEDED}  0.018756886944174767    52.55622100830078   13.695578575134277   22.004901885986328  0.0               
s89    RainGage   {FF4EE062-7C38-43BF-9839-EE3178E0BAB5}  0.0016542174853384495   100.0               4.067207336425781    27.013818740844727  0.0               
s90    RainGage   {B9458D0A-B233-4A5D-A87D-09DBF8123170}  0.011234237812459469    80.47189331054688   10.59916877746582    22.271512985229492  0.0               
s91    RainGage   {092C0C4E-DC72-4C29-8AB5-E707647B71A9}  0.002476970897987485    100.0               4.976917743682861    8.811177253723145   0.0               
s92    RainGage   {899AF69B-0A40-4B3B-8CFE-3A253573CA72}  0.026759397238492966    47.1010856628418    16.358299255371094   21.599010467529297  0.0               
s93    RainGage   {12841AF4-C57D-4092-84C7-7B72E2B6896A}  0.0003491026000119746   100.0               1.8684287071228027   11.110747337341309  0.0               
s94    RainGage   {D04EB3DC-50DF-42F7-A96A-DDE91717BAE7}  0.001017442555166781    100.0               3.189737558364868    10.787490844726562  0.0               
s95    RainGage   {742243ED-4117-488A-98B3-DD804E6D0749}  0.012492943555116653    45.2227897644043    11.177184104919434   35.53350067138672   0.0               
s96    RainGage   {F0773422-946D-459A-BC35-F3F4E94D8976}  0.000427219201810658    0.0                 2.0669281482696533   56.56407928466797   0.0               
s97    RainGage   {D8464A9E-BE38-4356-A298-B6475DE3E2E3}  9.241000225301832e-05   0.0                 0.9613012075424194   51.68987274169922   0.0               
s98    RainGage   {52CCE5C0-5FA4-4C81-A999-EE43103489F2}  0.004858601838350296    24.40394401550293   6.970366954803467    29.7507381439209    0.0               
s99    RainGage   {62BEE652-51F7-485A-8B5C-163A5BFD0333}  0.00014452000323217362  0.0                 1.2021647691726685   46.47894287109375   0.0               
s100   RainGage   {BBC00235-87E5-4740-8B12-74991D531482}  0.004629467148333788    100.0               6.804018497467041    14.952875137329102  0.0               
s101   RainGage   {85A8D30F-2439-4342-B269-59DAC1983C2E}  0.0782451182603836      28.154197692871094  27.97233009338379    21.958803176879883  0.0               
s102   RainGage   {55DC4F20-663D-4C99-AB30-A0AE8D39BD29}  0.00021163000201340765  100.0               1.454750895500183    17.514070510864258  0.0               
s103   RainGage   {5CBA250E-FF29-47DE-9E18-4C143963E5FC}  5.142655936651863e-05   0.0                 0.7171231508255005   11.595833778381348  0.0               
s104   RainGage   {BE6D071A-0B1F-4C27-A22F-45E9B747CD64}  0.03887059912085533     6.122788429260254   19.715627670288086   38.87089157104492   0.0               
s105   RainGage   {77AFAF00-D8DD-4644-ABEF-42188CA1A211}  0.0007729602511972189   43.004066467285156  2.7802162170410156   43.045143127441406  0.0               
s106   RainGage   {88FD7AAB-E1D9-49EB-BCC3-698A78C0D1F4}  0.00020561246492434293  100.0               1.4339193105697632   17.816572189331055  0.0               
s107   RainGage   {1062A9DF-4C0D-4E55-9D5C-6371FCABC5BA}  0.00041677922126837075  100.0               2.0415170192718506   5.778989791870117   0.0               
s108   RainGage   {855C3C67-5962-4552-8DA9-AF64B863B8DA}  0.05690746009349823     34.03266143798828   23.855283737182617   26.535551071166992  0.0               
s109   RainGage   {82BEFB4B-B64D-4899-AAAC-0E719D7187AB}  0.002277259947732091    100.0               4.772064685821533    15.69852352142334   0.0               
s110   RainGage   {B3ED597C-7003-465D-B178-DD7645740BD1}  0.000532137171830982    100.0               2.306809902191162    8.761164665222168   0.0               
s111   RainGage   {C5C093EE-D6DE-4040-866C-BEDE32704BFF}  0.003926423843950033    100.0               6.26611852645874     21.095674514770508  0.0               
s112   RainGage   {4160A5A4-263A-4BC0-A943-D6EB1FAA2B09}  0.0006370114861056209   100.0               2.5239086151123047   9.234907150268555   0.0               
s113   RainGage   {9CFD38AC-5629-4F87-B9FC-E52CC16203D5}  0.001447067130357027    100.0               3.8040335178375244   9.416091918945312   0.0               
s114   RainGage   {531BFEC1-40CC-45BE-8937-5E009BF4DD15}  0.004858813248574734    97.18242645263672   6.970518589019775    9.538954734802246   0.0               
s115   RainGage   {F13DBECE-5B0D-4F65-B633-980599661E7A}  0.00016340035654138774  100.0               1.2782814502716064   9.86352252960205    0.0               
s116   RainGage   {C837CE28-E520-4ED2-946F-F19688EE5B00}  0.0002503801661077887   100.0               1.5823405981063843   9.77636432647705    0.0               
s117   RainGage   {C92F60A1-1ACB-49A2-8F31-AFE409ECC772}  0.0003299824893474579   100.0               1.8165420293807983   10.289604187011719  0.0               
s118   RainGage   {3C1A5AC2-E4B6-49ED-BEAC-C1A1C7616CD4}  0.0001292807428399101   0.0                 1.1370168924331665   9.53917121887207    0.0               
s119   RainGage   {6641E1AB-521B-4AA3-9B0C-34F369083F1E}  0.000936714990530163    100.0               3.060580015182495    9.519775390625      0.0               
s120   RainGage   {BFB180F3-D779-4765-ACAE-7EBD58B572F4}  0.0016425653593614697   58.29335403442383   4.052857398986816    21.78537940979004   0.0               
s121   RainGage   {B057ABB2-6C12-4D85-89B2-DCE9855C2FF8}  0.0009812499629333615   100.0               3.132491111755371    12.306045532226562  0.0               
s122   RainGage   {4ABC84FA-2B93-4233-8536-0F3780DFAEF4}  0.0005781250074505806   100.0               2.4044229984283447   11.400625228881836  0.0               
s123   RainGage   {0C084A1E-5FDB-4A05-B9CB-FCB0F07DE093}  0.003349890699610114    21.52944564819336   5.7878241539001465   44.75861740112305   0.0               
s124   RainGage   {54FCA80C-E381-4063-BE5F-691E7CF2D58D}  0.01174235250800848     3.712655544281006   10.836214065551758   22.454181671142578  0.0               
s125   RainGage   {66BD37BF-83E8-4293-8F79-E76925A7D15B}  7.900250056991354e-05   0.0                 0.8888335227966309   5.320101737976074   0.0               
s126   RainGage   {71569252-7E4D-4BA7-9005-24C60F6E8B11}  0.003455621190369129    53.79178237915039   5.878453254699707    28.60651397705078   0.0               
s127   RainGage   {47B10340-11FA-4854-8C4C-4E2ABA2D23E7}  0.11992621421813965     22.86582374572754   34.63036346435547    27.279775619506836  0.0               
s128   RainGage   {B29D8B70-EEB0-4E4C-9F6B-870C2600A743}  0.003715805010870099    80.28751373291016   6.09574031829834     15.158124923706055  0.0               
s129   RainGage   {052F44D0-E314-4419-AF41-773A3FD560A9}  0.20142823457717896     19.946651458740234  44.88075637817383    26.03157615661621   0.0               
s130   RainGage   {3DC248DE-11C6-493D-862A-02A6EF6781A4}  0.0004899986670352519   100.0               2.2135913372039795   10.146594047546387  0.0               
s131   RainGage   {8D0F34FF-5970-490D-B55C-BC97525F0FEC}  0.0016181732062250376   91.62246704101562   4.0226521492004395   13.246561050415039  0.0               
s132   RainGage   {A5D5075A-8BCE-47C7-9767-62272B1BE103}  0.0020181890577077866   100.0               4.492425918579102    10.379463195800781  0.0               
s133   RainGage   {E7E5C224-AC48-45F0-9673-EE99237F25EB}  0.00021814749925397336  100.0               1.47698175907135     11.010038375854492  0.0               
s134   RainGage   {04357F2B-46C4-4886-91EF-591F896BA0CE}  0.0015820000553503633   87.60445404052734   3.9774363040924072   33.66763687133789   0.0               
s135   RainGage   {EC04F4F2-4DB0-4923-A668-9B7A059783CE}  0.0003062699979636818   100.0               1.7500571012496948   20.710535049438477  0.0               
s136   RainGage   {11F545CC-60A8-4C5F-BB82-59B90340B86E}  0.00031286501325666904  100.0               1.768799066543579    12.910563468933105  0.0               
s137   RainGage   {56064FF9-0D31-4A1C-9A00-3F5A67EDE930}  0.00036384249688126147  56.507110595703125  1.9074655771255493   9.661534309387207   0.0               
s138   RainGage   {A26412EA-59C9-46BE-AA71-687BB3C452F3}  0.000878125021699816    100.0               2.963317394256592    8.854585647583008   0.0               
s139   RainGage   {38747A5E-C413-498A-9D02-D75FA55C90CE}  0.0016804938204586506   100.0               4.0993828773498535   27.028837203979492  0.0               
s140   RainGage   {1B1D24C7-AF6C-4195-8DF5-78D18647230F}  5.302218414726667e-05   0.0                 0.7281633019447327   17.7183837890625    0.0               
s141   RainGage   {FB97C775-A941-4439-9CB8-DB2978BD8B8C}  0.0011106609599664807   90.906494140625     3.332658052444458    8.849915504455566   0.0               
s142   RainGage   {F275CBD5-4BC1-4D86-95B0-90E76E47422A}  0.009428577497601509    34.81450653076172   9.71008586883545     32.70527648925781   0.0               
s143   RainGage   {FB09AF15-45B6-4F8D-A65B-BF3B809260AE}  0.0003707762516569346   0.0                 1.9255551099777222   23.790515899658203  0.0               
s144   RainGage   {AC3D02BC-1136-456A-B6E3-C2F64BB0B1DE}  0.00043720859684981406  100.0               2.0909533500671387   11.461833953857422  0.0               
s145   RainGage   {86F6B7CC-AD19-4D77-B304-B97694FA1B44}  0.08013483881950378     8.131698608398438   28.30809783935547    30.510128021240234  0.0               
s146   RainGage   {ACAD5060-E5E4-4C2D-ACE4-217073544135}  0.0038084061816334724   95.36965942382812   6.171228408813477    5.989802837371826   0.0               
s147   RainGage   {C95C422F-9D81-46AF-8302-CE027D338BD4}  0.006190942134708166    51.86316680908203   7.8682541847229      25.74578094482422   0.0               
s148   RainGage   {56377131-A249-41FA-B82A-DFF566DAD05A}  0.0017282962799072266   27.14881134033203   4.157278060913086    39.419166564941406  0.0               
s149   RainGage   {D8E9E68D-8F38-4EEC-AB27-D9050FD801EC}  0.0015797587111592293   56.13740921020508   3.9746179580688477   4.7745208740234375  0.0               
s150   RainGage   {A075B6B4-7DB1-4A4B-97A8-B01FADEB45E3}  4.374999844003469e-05   0.0                 0.6614378094673157   3.262394428253174   0.0               
s151   RainGage   {DC513466-E868-44E8-9B61-048381B336ED}  0.0005230291862972081   0.0                 2.2869832515716553   14.983590126037598  0.0               
s152   RainGage   {13773E43-06C3-420A-808B-AF360260489C}  0.012949394062161446    97.89862823486328   11.37954044342041    8.218613624572754   0.0               
s153   RainGage   {5A66C422-1D05-4500-B10B-7CD78F02596A}  0.00011218125291634351  0.0                 1.0591565370559692   44.592838287353516  0.0               
s154   RainGage   {4C4CC7C1-286B-4CFA-91DE-A6BF9524CB60}  6.25000029685907e-05    0.0                 0.7905694246292114   24.600574493408203  0.0               
s155   RainGage   {32B34C72-BD10-4360-AC89-2F52AAA06B00}  0.03783649951219559     68.79093933105469   19.45160675048828    21.38237190246582   0.0               
s156   RainGage   {156C2CEA-CBA0-4CB0-ACAA-6D25B1F98607}  0.05067153647542        40.21107482910156   22.510339736938477   28.51804542541504   0.0               
s157   RainGage   {51634C29-1C2C-49A0-ACBA-12B974166785}  0.0002183912438340485   0.0                 1.4778066873550415   27.576313018798828  0.0               
s158   RainGage   {3F3EB667-5967-4BB0-AFE5-5932BE26A2F7}  0.0026753053534775972   35.96182632446289   5.172335624694824    40.19153594970703   0.0               
s159   RainGage   {250AC303-8147-4F3D-94B5-1096A300BC00}  0.021268408745527267    51.013893127441406  14.58369255065918    20.824745178222656  0.0               
s160   RainGage   {D15710AC-67A9-43B9-B69B-F0696E698E10}  0.0001915025059133768   100.0               1.383844256401062    42.104618072509766  0.0               
s161   RainGage   {314CC3E6-5F9D-4D0D-B9AA-B07915AD2EF3}  0.0014190743677318096   37.570213317871094  3.7670602798461914   34.02507400512695   0.0               
s162   RainGage   {FCC64B2E-04C3-4F47-8497-6548D497924F}  0.0035515103954821825   91.49549865722656   5.9594550132751465   25.242889404296875  0.0               
s163   RainGage   {7391ACD0-F776-49D7-BD19-0D6E5390C80B}  0.0003375000087544322   59.47077178955078   1.837117314338684    56.63197326660156   0.0               
s164   RainGage   {387CEB80-7799-4306-A915-1C7A2D6C9094}  0.00019077249453403056  0.0                 1.3812041282653809   31.706151962280273  0.0               
s165   RainGage   {AE532177-CCAD-4F0F-A5AE-1804A30CBE5F}  0.00012078045983798802  0.0                 1.0990016460418701   45.56827163696289   0.0               
s166   RainGage   {F998ED81-B438-4C64-B00B-170185EA8D1B}  0.008119952864944935    31.742773056030273  9.011077880859375    22.025957107543945  0.0               
s167   RainGage   {AD1A98CD-D333-4EDA-B028-6A07F527172B}  0.0014286787481978536   100.0               3.7797865867614746   12.103185653686523  0.0               
s168   RainGage   {62EB9C08-F37C-4091-8203-B1C4685F2F62}  0.06151334568858147     8.6150541305542     24.801883697509766   29.28207778930664   0.0               
s169   RainGage   {E155B8C6-50E0-44E6-898E-EB3BB2E1DE2A}  0.054488543421030045    0.4101793169975281  23.34278106689453    23.790904998779297  0.0               
s170   RainGage   {8017AA70-DDB5-446E-B6BB-758D8038EC01}  0.07906363159418106     31.67611312866211   28.118255615234375   23.121156692504883  0.0               
s171   RainGage   {F4015CA0-5A0B-4BC3-8B16-C94800C848A3}  0.009733463637530804    0.0                 9.86583137512207     30.107568740844727  0.0               
s172   RainGage   {C4570FAA-77DD-42DB-A954-CCA141FCAD31}  8.959499973570928e-05   0.0                 0.9465463757514954   54.11001205444336   0.0               
s173   RainGage   {685F85DC-08A4-42EC-9684-9F0D13613136}  0.0010810262756422162   0.0                 3.2878963947296143   41.40003967285156   0.0               
s174   RainGage   {B613A200-54BB-4ECB-BAD8-B727A66428B1}  0.0013850624673068523   9.450492858886719   3.7216427326202393   12.632145881652832  0.0               